
     RDKit          3D

104110  0  0  0  0  0  0  0  0999 V2000
   76.6780   32.8160   57.6350 N   0  0  0  0  0  0  0  0  0  0  0  0
   75.3630   34.6580   58.6970 C   0  0  1  0  0  0  0  0  0  0  0  0
   68.6450   41.4250   48.3040 O   0  0  0  0  0  0  0  0  0  0  0  0
   75.6800   33.6650   57.5980 C   0  0  0  0  0  0  0  0  0  0  0  0
   73.0010   35.2630   49.0850 C   0  0  2  0  0  0  0  0  0  0  0  0
   73.2350   36.7210   48.6450 C   0  0  2  0  0  0  0  0  0  0  0  0
   72.1100   37.7100   49.0140 C   0  0  2  0  0  0  0  0  0  0  0  0
   70.9630   37.7380   47.9810 C   0  0  2  0  0  0  0  0  0  0  0  0
   70.6020   40.1660   47.5270 C   0  0  0  0  0  0  0  0  0  0  0  0
   69.5350   41.2280   47.2090 C   0  0  2  0  0  0  0  0  0  0  0  0
   69.0030   42.3630   49.2470 C   0  0  0  0  0  0  0  0  0  0  0  0
   69.4660   41.9420   50.4960 C   0  0  0  0  0  0  0  0  0  0  0  0
   69.6750   42.8750   51.5160 C   0  0  0  0  0  0  0  0  0  0  0  0
   69.4290   44.2300   51.3110 C   0  0  0  0  0  0  0  0  0  0  0  0
   75.6630   32.5620   55.7250 C   0  0  0  0  0  0  0  0  0  0  0  0
   68.9630   44.6310   50.0650 C   0  0  0  0  0  0  0  0  0  0  0  0
   68.5320   45.9660   49.6020 C   0  0  0  0  0  0  0  0  0  0  0  0
   67.5230   46.8380   47.4540 C   0  0  2  0  0  0  0  0  0  0  0  0
   68.2860   48.1990   47.4670 C   0  0  0  0  0  0  0  0  0  0  0  0
   66.2230   49.4650   46.9980 C   0  0  0  0  0  0  0  0  0  0  0  0
   65.4280   48.1540   46.8390 C   0  0  2  0  0  0  0  0  0  0  0  0
   66.0290   47.0630   47.7400 C   0  0  2  0  0  0  0  0  0  0  0  0
   68.7680   43.7340   49.0470 C   0  0  0  0  0  0  0  0  0  0  0  0
   68.2610   44.5000   47.8780 C   0  0  0  0  0  0  0  0  0  0  0  0
   74.7770   34.4630   53.5850 C   0  0  0  0  0  0  0  0  0  0  0  0
   75.2600   32.2260   54.2860 C   0  0  2  0  0  0  0  0  0  0  0  0
   75.0970   35.6450   52.7300 C   0  0  0  0  0  0  0  0  0  0  0  0
   74.7450   36.9500   53.1090 C   0  0  0  0  0  0  0  0  0  0  0  0
   75.1040   38.0450   52.3260 C   0  0  0  0  0  0  0  0  0  0  0  0
   75.8410   37.8510   51.1630 C   0  0  0  0  0  0  0  0  0  0  0  0
   76.2210   36.5700   50.7770 C   0  0  0  0  0  0  0  0  0  0  0  0
   75.8410   35.4760   51.5470 C   0  0  0  0  0  0  0  0  0  0  0  0
   73.6890   34.6110   54.6000 C   0  0  0  0  0  0  0  0  0  0  0  0
   73.8560   34.2010   55.9420 C   0  0  0  0  0  0  0  0  0  0  0  0
   71.5870   35.1370   55.5070 C   0  0  0  0  0  0  0  0  0  0  0  0
   70.1550   35.5980   55.6700 C   0  0  1  0  0  0  0  0  0  0  0  0
   76.0130   31.0240   53.6610 C   0  0  2  0  0  0  0  0  0  0  0  0
   72.3740   35.0900   54.3480 C   0  0  0  0  0  0  0  0  0  0  0  0
   71.8320   35.4650   52.9800 C   0  0  1  0  0  0  0  0  0  0  0  0
   75.4130   30.6110   52.3050 C   0  0  0  0  0  0  0  0  0  0  0  0
   75.6310   30.8380   49.8230 C   0  0  2  0  0  0  0  0  0  0  0  0
   75.4500   32.1520   49.0360 C   0  0  2  0  0  0  0  0  0  0  0  0
   74.2160   32.9930   49.4310 C   0  0  2  0  0  0  0  0  0  0  0  0
   74.1530   34.3280   48.6590 C   0  0  2  0  0  0  0  0  0  0  0  0
   76.6690   32.1100   56.4350 N   0  0  0  0  0  0  0  0  0  0  0  0
   76.0550   31.0510   51.2090 N   0  0  0  0  0  0  0  0  0  0  0  0
   70.1610   38.9660   47.9550 N   0  0  0  0  0  0  0  0  0  0  0  0
   68.1590   45.7920   48.3010 N   0  0  0  0  0  0  0  0  0  0  0  0
   67.5280   49.3030   47.2990 N   0  0  0  0  0  0  0  0  0  0  0  0
   75.4830   33.3990   53.4420 N   0  0  0  0  0  0  0  0  0  0  0  0
   74.9760   33.5380   56.4190 N   0  0  0  0  0  0  0  0  0  0  0  0
   65.7370   50.5790   46.8430 O   0  0  0  0  0  0  0  0  0  0  0  0
   69.4940   48.3030   47.6190 O   0  0  0  0  0  0  0  0  0  0  0  0
   68.5050   47.0050   50.2630 O   0  0  0  0  0  0  0  0  0  0  0  0
   67.9770   44.0590   46.7660 O   0  0  0  0  0  0  0  0  0  0  0  0
   71.7900   40.4140   47.3150 O   0  0  0  0  0  0  0  0  0  0  0  0
   74.3750   29.9520   52.2700 O   0  0  0  0  0  0  0  0  0  0  0  0
   72.4510   34.5400   56.8840 S   0  0  0  0  0  0  0  0  0  0  0  0
   76.2720   39.1980   50.1760 Cl  0  0  0  0  0  0  0  0  0  0  0  0
   75.2170   35.6640   58.3050 H   0  0  0  0  0  0  0  0  0  0  0  0
   74.4550   34.3900   59.2360 H   0  0  0  0  0  0  0  0  0  0  0  0
   76.1620   34.7190   59.4360 H   0  0  0  0  0  0  0  0  0  0  0  0
   72.0560   34.8880   48.6890 H   0  0  0  0  0  0  0  0  0  0  0  0
   72.9080   35.2490   50.1690 H   0  0  0  0  0  0  0  0  0  0  0  0
   73.4350   36.7620   47.5730 H   0  0  0  0  0  0  0  0  0  0  0  0
   74.1520   37.0730   49.1100 H   0  0  0  0  0  0  0  0  0  0  0  0
   72.5610   38.7010   49.0860 H   0  0  0  0  0  0  0  0  0  0  0  0
   71.7190   37.4960   50.0080 H   0  0  0  0  0  0  0  0  0  0  0  0
   70.3000   36.8890   48.1530 H   0  0  0  0  0  0  0  0  0  0  0  0
   71.3630   37.5930   46.9740 H   0  0  0  0  0  0  0  0  0  0  0  0
   69.9740   42.1600   46.8610 H   0  0  0  0  0  0  0  0  0  0  0  0
   68.9490   40.8590   46.3670 H   0  0  0  0  0  0  0  0  0  0  0  0
   69.6250   40.8920   50.6880 H   0  0  0  0  0  0  0  0  0  0  0  0
   69.9860   42.5540   52.4870 H   0  0  0  0  0  0  0  0  0  0  0  0
   69.5700   44.9340   52.1190 H   0  0  0  0  0  0  0  0  0  0  0  0
   67.6160   46.5060   46.4180 H   0  0  0  0  0  0  0  0  0  0  0  0
   65.4600   47.8570   45.7900 H   0  0  0  0  0  0  0  0  0  0  0  0
   64.3840   48.3350   47.0850 H   0  0  0  0  0  0  0  0  0  0  0  0
   65.9140   47.3400   48.7840 H   0  0  0  0  0  0  0  0  0  0  0  0
   65.4820   46.1350   47.6270 H   0  0  0  0  0  0  0  0  0  0  0  0
   74.1970   31.9620   54.2840 H   0  0  0  0  0  0  0  0  0  0  0  0
   74.1980   37.1380   54.0190 H   0  0  0  0  0  0  0  0  0  0  0  0
   74.8130   39.0410   52.6250 H   0  0  0  0  0  0  0  0  0  0  0  0
   76.7980   36.4220   49.8750 H   0  0  0  0  0  0  0  0  0  0  0  0
   76.1540   34.4960   51.2180 H   0  0  0  0  0  0  0  0  0  0  0  0
   69.7560   35.3730   56.6600 H   0  0  0  0  0  0  0  0  0  0  0  0
   70.0680   36.6750   55.5320 H   0  0  0  0  0  0  0  0  0  0  0  0
   69.4900   35.1240   54.9490 H   0  0  0  0  0  0  0  0  0  0  0  0
   75.9710   30.1650   54.3310 H   0  0  0  0  0  0  0  0  0  0  0  0
   77.0740   31.2590   53.5490 H   0  0  0  0  0  0  0  0  0  0  0  0
   70.7450   35.4090   52.9290 H   0  0  0  0  0  0  0  0  0  0  0  0
   72.1090   36.4750   52.6850 H   0  0  0  0  0  0  0  0  0  0  0  0
   72.1980   34.7840   52.2140 H   0  0  0  0  0  0  0  0  0  0  0  0
   76.3980   30.2310   49.3410 H   0  0  0  0  0  0  0  0  0  0  0  0
   74.7110   30.2500   49.7620 H   0  0  0  0  0  0  0  0  0  0  0  0
   75.3770   31.9110   47.9750 H   0  0  0  0  0  0  0  0  0  0  0  0
   76.3540   32.7550   49.1380 H   0  0  0  0  0  0  0  0  0  0  0  0
   74.2380   33.1910   50.5040 H   0  0  0  0  0  0  0  0  0  0  0  0
   73.3050   32.4200   49.2490 H   0  0  0  0  0  0  0  0  0  0  0  0
   75.1030   34.8460   48.7970 H   0  0  0  0  0  0  0  0  0  0  0  0
   74.0820   34.1350   47.5880 H   0  0  0  0  0  0  0  0  0  0  0  0
   76.9280   31.5400   51.3350 H   0  0  0  0  0  0  0  0  0  0  0  0
   69.1810   38.8670   48.1810 H   0  0  0  0  0  0  0  0  0  0  0  0
   68.0490   50.1660   47.3670 H   0  0  0  0  0  0  0  0  0  0  0  0
  1  4  2  0
  1 45  1  0
  2  4  1  0
  2 60  1  6
  2 61  1  0
  2 62  1  0
  3 10  1  0
  3 11  1  0
  4 51  1  0
  5  6  1  0
  5 44  1  0
  5 63  1  6
  5 64  1  0
  6  7  1  0
  6 65  1  6
  6 66  1  0
  7  8  1  0
  7 67  1  1
  7 68  1  0
  8 47  1  0
  8 69  1  1
  8 70  1  0
  9 10  1  0
  9 47  1  0
  9 56  2  0
 10 71  1  6
 10 72  1  0
 11 12  2  0
 11 23  1  0
 12 13  1  0
 12 73  1  0
 13 14  2  0
 13 74  1  0
 14 16  1  0
 14 75  1  0
 15 26  1  0
 15 45  2  0
 15 51  1  0
 16 17  1  0
 16 23  2  0
 17 48  1  0
 17 54  2  0
 18 19  1  0
 18 22  1  0
 18 48  1  0
 18 76  1  6
 19 49  1  0
 19 53  2  0
 20 21  1  0
 20 49  1  0
 20 52  2  0
 21 22  1  0
 21 77  1  6
 21 78  1  0
 22 79  1  1
 22 80  1  0
 23 24  1  0
 24 48  1  0
 24 55  2  0
 25 27  1  0
 25 33  1  0
 25 50  2  0
 26 37  1  0
 26 50  1  0
 26 81  1  1
 27 28  2  0
 27 32  1  0
 28 29  1  0
 28 82  1  0
 29 30  2  0
 29 83  1  0
 30 31  1  0
 30 59  1  0
 31 32  2  0
 31 84  1  0
 32 85  1  0
 33 34  2  0
 33 38  1  0
 34 51  1  0
 34 58  1  0
 35 36  1  0
 35 38  2  0
 35 58  1  0
 36 86  1  1
 36 87  1  0
 36 88  1  0
 37 40  1  0
 37 89  1  1
 37 90  1  0
 38 39  1  0
 39 91  1  1
 39 92  1  0
 39 93  1  0
 40 46  1  0
 40 57  2  0
 41 42  1  0
 41 46  1  0
 41 94  1  6
 41 95  1  0
 42 43  1  0
 42 96  1  6
 42 97  1  0
 43 44  1  0
 43 98  1  1
 43 99  1  0
 44100  1  6
 44101  1  0
 46102  1  0
 47103  1  0
 49104  1  0
M  END
$$$$
